@<TRIPOS>MOLECULE
*****
 60 90 0 0 0
SMALL
GASTEIGER

@<TRIPOS>ATOM
      1 C           0.9785   12.6857    1.7871 C.ar    1  UNL1        0.0000
      2 C           0.5946   13.0196    0.5213 C.ar    1  UNL1        0.0000
      3 C           1.6608   13.5970   -0.1043 C.ar    1  UNL1        0.0000
      4 C           2.7035   13.6201    0.7751 C.ar    1  UNL1        0.0000
      5 C           2.2818   13.0568    1.9440 C.ar    1  UNL1        0.0000
      6 C           2.7227   13.5851    3.1833 C.ar    1  UNL1        0.0000
      7 C           1.8452   13.7062    4.2437 C.ar    1  UNL1        0.0000
      8 C           0.4958   13.3219    4.0812 C.ar    1  UNL1        0.0000
      9 C           0.0675   12.8291    2.8636 C.ar    1  UNL1        0.0000
     10 C          -1.2172   13.2840    2.6367 C.ar    1  UNL1        0.0000
     11 C          -1.6147   13.6297    1.3261 C.ar    1  UNL1        0.0000
     12 C          -0.7145   13.5091    0.2848 C.ar    1  UNL1        0.0000
     13 C          -0.9220   14.5547   -0.5941 C.ar    1  UNL1        0.0000
     14 C           0.1818   15.1527   -1.2415 C.ar    1  UNL1        0.0000
     15 C           1.4574   14.6854   -0.9892 C.ar    1  UNL1        0.0000
     16 C           2.3229   15.7623   -0.9838 C.ar    1  UNL1        0.0000
     17 C           3.4027   15.7861   -0.0733 C.ar    1  UNL1        0.0000
     18 C           3.5816   14.7324    0.8021 C.ar    1  UNL1        0.0000
     19 C           4.0331   15.2378    2.0061 C.ar    1  UNL1        0.0000
     20 C           3.5966   14.6548    3.2164 C.ar    1  UNL1        0.0000
     21 C           3.2106   15.5538    4.3481 C.ar    1  UNL1        0.0000
     22 C           2.1469   14.9775    4.9721 C.ar    1  UNL1        0.0000
     23 C           1.0630   15.8184    5.5224 C.ar    1  UNL1        0.0000
     24 C          -0.2375   15.4480    5.3658 C.ar    1  UNL1        0.0000
     25 C          -0.5742   14.2027    4.6445 C.ar    1  UNL1        0.0000
     26 C          -1.6147   14.1797    3.7670 C.ar    1  UNL1        0.0000
     27 C          -2.4145   15.3998    3.5300 C.ar    1  UNL1        0.0000
     28 C          -2.7975   15.7329    2.2670 C.ar    1  UNL1        0.0000
     29 C          -2.4161   14.8767    1.1243 C.ar    1  UNL1        0.0000
     30 C          -1.9953   15.4386   -0.0420 C.ar    1  UNL1        0.0000
     31 C          -1.9172   16.9087   -0.1732 C.ar    1  UNL1        0.0000
     32 C          -0.8534   17.4849   -0.7973 C.ar    1  UNL1        0.0000
     33 C           0.2305   16.6441   -1.3476 C.ar    1  UNL1        0.0000
     34 C           1.5309   17.0144   -1.1911 C.ar    1  UNL1        0.0000
     35 C           1.8677   18.2596   -0.4696 C.ar    1  UNL1        0.0000
     36 C           2.9082   18.2826    0.4078 C.ar    1  UNL1        0.0000
     37 C           3.7079   17.0625    0.6448 C.ar    1  UNL1        0.0000
     38 C           4.0910   16.7295    1.9079 C.ar    1  UNL1        0.0000
     39 C           3.7096   17.5857    3.0506 C.ar    1  UNL1        0.0000
     40 C           3.2889   17.0238    4.2169 C.ar    1  UNL1        0.0000
     41 C           2.2154   17.9076    4.7689 C.ar    1  UNL1        0.0000
     42 C           1.1116   17.3098    5.4164 C.ar    1  UNL1        0.0000
     43 C          -0.1640   17.7770    5.1641 C.ar    1  UNL1        0.0000
     44 C          -1.0295   16.7001    5.1586 C.ar    1  UNL1        0.0000
     45 C          -2.1092   16.6762    4.2481 C.ar    1  UNL1        0.0000
     46 C          -2.2881   17.7300    3.3727 C.ar    1  UNL1        0.0000
     47 C          -2.7398   17.2245    2.1687 C.ar    1  UNL1        0.0000
     48 C          -2.3032   17.8077    0.9585 C.ar    1  UNL1        0.0000
     49 C          -1.4292   18.8773    0.9916 C.ar    1  UNL1        0.0000
     50 C          -0.5518   18.7563   -0.0689 C.ar    1  UNL1        0.0000
     51 C           0.7978   19.1404    0.0937 C.ar    1  UNL1        0.0000
     52 C           1.2259   19.6334    1.3113 C.ar    1  UNL1        0.0000
     53 C           2.5107   19.1784    1.5382 C.ar    1  UNL1        0.0000
     54 C           2.9081   18.8327    2.8488 C.ar    1  UNL1        0.0000
     55 C           2.0080   18.9533    3.8900 C.ar    1  UNL1        0.0000
     56 C           0.6989   19.4428    3.6537 C.ar    1  UNL1        0.0000
     57 C          -0.3673   18.8654    4.2791 C.ar    1  UNL1        0.0000
     58 C          -1.4100   18.8424    3.3997 C.ar    1  UNL1        0.0000
     59 C          -0.9884   19.4055    2.2308 C.ar    1  UNL1        0.0000
     60 C           0.3150   19.7766    2.3878 C.ar    1  UNL1        0.0000
@<TRIPOS>BOND
     1     1     2   ar
     2     1     5   ar
     3     1     9   ar
     4     2     3   ar
     5     2    12   ar
     6     3     4   ar
     7     3    15   ar
     8     4     5   ar
     9     4    18   ar
    10     5     6   ar
    11     6     7   ar
    12     6    20   ar
    13     7     8   ar
    14     7    22   ar
    15     8     9   ar
    16     8    25   ar
    17     9    10   ar
    18    10    11   ar
    19    10    26   ar
    20    11    12   ar
    21    11    29   ar
    22    12    13   ar
    23    13    14   ar
    24    13    30   ar
    25    14    15   ar
    26    14    33   ar
    27    15    16   ar
    28    16    17   ar
    29    16    34   ar
    30    17    18   ar
    31    17    37   ar
    32    18    19   ar
    33    19    20   ar
    34    19    38   ar
    35    20    21   ar
    36    21    22   ar
    37    21    40   ar
    38    22    23   ar
    39    23    24   ar
    40    23    42   ar
    41    24    25   ar
    42    24    44   ar
    43    25    26   ar
    44    26    27   ar
    45    27    28   ar
    46    27    45   ar
    47    28    29   ar
    48    28    47   ar
    49    29    30   ar
    50    30    31   ar
    51    31    32   ar
    52    31    48   ar
    53    32    33   ar
    54    32    50   ar
    55    33    34   ar
    56    34    35   ar
    57    35    36   ar
    58    35    51   ar
    59    36    37   ar
    60    36    53   ar
    61    37    38   ar
    62    38    39   ar
    63    39    40   ar
    64    39    54   ar
    65    40    41   ar
    66    41    42   ar
    67    41    55   ar
    68    42    43   ar
    69    43    44   ar
    70    43    57   ar
    71    44    45   ar
    72    45    46   ar
    73    46    47   ar
    74    46    58   ar
    75    47    48   ar
    76    48    49   ar
    77    49    50   ar
    78    49    59   ar
    79    50    51   ar
    80    51    52   ar
    81    52    53   ar
    82    52    60   ar
    83    53    54   ar
    84    54    55   ar
    85    55    56   ar
    86    56    57   ar
    87    56    60   ar
    88    57    58   ar
    89    58    59   ar
    90    59    60   ar
@<TRIPOS>MOLECULE
*****
 60 90 0 0 0
SMALL
GASTEIGER

@<TRIPOS>ATOM
      1 C           0.0201   12.8230    3.2228 C.ar    1  UNL1        0.0000
      2 C           0.4339   13.3678    4.4031 C.ar    1  UNL1        0.0000
      3 C          -0.5792   14.1423    4.8881 C.ar    1  UNL1        0.0000
      4 C          -1.6190   14.0761    4.0075 C.ar    1  UNL1        0.0000
      5 C          -1.2487   13.2606    2.9783 C.ar    1  UNL1        0.0000
      6 C          -1.6480   13.5678    1.6535 C.ar    1  UNL1        0.0000
      7 C          -0.7667   13.4053    0.6018 C.ar    1  UNL1        0.0000
      8 C           0.5469   12.9521    0.8550 C.ar    1  UNL1        0.0000
      9 C           0.9367   12.6762    2.1515 C.ar    1  UNL1        0.0000
     10 C           2.2552   13.0609    2.3015 C.ar    1  UNL1        0.0000
     11 C           2.6836   13.6250    3.5236 C.ar    1  UNL1        0.0000
     12 C           1.7796   13.7862    4.5560 C.ar    1  UNL1        0.0000
     13 C           2.0751   14.9644    5.2143 C.ar    1  UNL1        0.0000
     14 C           1.0263   15.7663    5.7163 C.ar    1  UNL1        0.0000
     15 C          -0.2842   15.3638    5.5439 C.ar    1  UNL1        0.0000
     16 C          -1.0580   16.4853    5.3147 C.ar    1  UNL1        0.0000
     17 C          -2.1347   16.4166    4.4030 C.ar    1  UNL1        0.0000
     18 C          -2.4025   15.2289    3.7500 C.ar    1  UNL1        0.0000
     19 C          -2.8143   15.5216    2.4641 C.ar    1  UNL1        0.0000
     20 C          -2.4309   14.6775    1.3984 C.ar    1  UNL1        0.0000
     21 C          -1.9753   15.3007    0.1171 C.ar    1  UNL1        0.0000
     22 C          -0.9645   14.5280   -0.3668 C.ar    1  UNL1        0.0000
     23 C           0.1834   15.1524   -1.0574 C.ar    1  UNL1        0.0000
     24 C           1.4493   14.7157   -0.8134 C.ar    1  UNL1        0.0000
     25 C           1.6843   13.6141    0.1437 C.ar    1  UNL1        0.0000
     26 C           2.7219   13.6803    1.0223 C.ar    1  UNL1        0.0000
     27 C           3.6203   14.8539    1.0250 C.ar    1  UNL1        0.0000
     28 C           4.0331   15.3975    2.2026 C.ar    1  UNL1        0.0000
     29 C           3.5857   14.8178    3.4864 C.ar    1  UNL1        0.0000
     30 C           3.2161   15.6313    4.5133 C.ar    1  UNL1        0.0000
     31 C           3.2599   17.0998    4.3512 C.ar    1  UNL1        0.0000
     32 C           2.2491   17.8726    4.8352 C.ar    1  UNL1        0.0000
     33 C           1.1011   17.2482    5.5257 C.ar    1  UNL1        0.0000
     34 C          -0.1648   17.6849    5.2818 C.ar    1  UNL1        0.0000
     35 C          -0.3998   18.7863    4.3247 C.ar    1  UNL1        0.0000
     36 C          -1.4374   18.7202    3.4460 C.ar    1  UNL1        0.0000
     37 C          -2.3357   17.5466    3.4434 C.ar    1  UNL1        0.0000
     38 C          -2.7486   17.0029    2.2657 C.ar    1  UNL1        0.0000
     39 C          -2.3012   17.5826    0.9819 C.ar    1  UNL1        0.0000
     40 C          -1.9317   16.7691   -0.0451 C.ar    1  UNL1        0.0000
     41 C          -0.7906   17.4361   -0.7460 C.ar    1  UNL1        0.0000
     42 C           0.2583   16.6343   -1.2480 C.ar    1  UNL1        0.0000
     43 C           1.5687   17.0367   -1.0756 C.ar    1  UNL1        0.0000
     44 C           2.3425   15.9153   -0.8463 C.ar    1  UNL1        0.0000
     45 C           3.4192   15.9839    0.0654 C.ar    1  UNL1        0.0000
     46 C           3.6870   17.1717    0.7184 C.ar    1  UNL1        0.0000
     47 C           4.0989   16.8789    2.0043 C.ar    1  UNL1        0.0000
     48 C           3.7154   17.7231    3.0699 C.ar    1  UNL1        0.0000
     49 C           2.9325   18.8326    2.8149 C.ar    1  UNL1        0.0000
     50 C           2.0512   18.9953    3.8665 C.ar    1  UNL1        0.0000
     51 C           0.7375   19.4484    3.6133 C.ar    1  UNL1        0.0000
     52 C           0.3479   19.7243    2.3168 C.ar    1  UNL1        0.0000
     53 C          -0.9706   19.3396    2.1667 C.ar    1  UNL1        0.0000
     54 C          -1.3991   18.7754    0.9447 C.ar    1  UNL1        0.0000
     55 C          -0.4950   18.6144   -0.0877 C.ar    1  UNL1        0.0000
     56 C           0.8506   19.0326    0.0652 C.ar    1  UNL1        0.0000
     57 C           1.8637   18.2582   -0.4198 C.ar    1  UNL1        0.0000
     58 C           2.9036   18.3245    0.4608 C.ar    1  UNL1        0.0000
     59 C           2.5332   19.1398    1.4900 C.ar    1  UNL1        0.0000
     60 C           1.2644   19.5775    1.2455 C.ar    1  UNL1        0.0000
@<TRIPOS>BOND
     1     1     2   ar
     2     1     5   ar
     3     1     9   ar
     4     2     3   ar
     5     2    12   ar
     6     3     4   ar
     7     3    15   ar
     8     4     5   ar
     9     4    18   ar
    10     5     6   ar
    11     6     7   ar
    12     6    20   ar
    13     7     8   ar
    14     7    22   ar
    15     8     9   ar
    16     8    25   ar
    17     9    10   ar
    18    10    11   ar
    19    10    26   ar
    20    11    12   ar
    21    11    29   ar
    22    12    13   ar
    23    13    14   ar
    24    13    30   ar
    25    14    15   ar
    26    14    33   ar
    27    15    16   ar
    28    16    17   ar
    29    16    34   ar
    30    17    18   ar
    31    17    37   ar
    32    18    19   ar
    33    19    20   ar
    34    19    38   ar
    35    20    21   ar
    36    21    22   ar
    37    21    40   ar
    38    22    23   ar
    39    23    24   ar
    40    23    42   ar
    41    24    25   ar
    42    24    44   ar
    43    25    26   ar
    44    26    27   ar
    45    27    28   ar
    46    27    45   ar
    47    28    29   ar
    48    28    47   ar
    49    29    30   ar
    50    30    31   ar
    51    31    32   ar
    52    31    48   ar
    53    32    33   ar
    54    32    50   ar
    55    33    34   ar
    56    34    35   ar
    57    35    36   ar
    58    35    51   ar
    59    36    37   ar
    60    36    53   ar
    61    37    38   ar
    62    38    39   ar
    63    39    40   ar
    64    39    54   ar
    65    40    41   ar
    66    41    42   ar
    67    41    55   ar
    68    42    43   ar
    69    43    44   ar
    70    43    57   ar
    71    44    45   ar
    72    45    46   ar
    73    46    47   ar
    74    46    58   ar
    75    47    48   ar
    76    48    49   ar
    77    49    50   ar
    78    49    59   ar
    79    50    51   ar
    80    51    52   ar
    81    52    53   ar
    82    52    60   ar
    83    53    54   ar
    84    54    55   ar
    85    55    56   ar
    86    56    57   ar
    87    56    60   ar
    88    57    58   ar
    89    58    59   ar
    90    59    60   ar
@<TRIPOS>MOLECULE
*****
 60 90 0 0 0
SMALL
GASTEIGER

@<TRIPOS>ATOM
      1 C           0.5944   12.9734    0.5822 C.ar    1  UNL1        0.0000
      2 C           1.6605   13.5450   -0.0486 C.ar    1  UNL1        0.0000
      3 C           2.7035   13.5763    0.8304 C.ar    1  UNL1        0.0000
      4 C           2.2817   13.0243    2.0046 C.ar    1  UNL1        0.0000
      5 C           0.9783   12.6516    1.8511 C.ar    1  UNL1        0.0000
      6 C           0.0674   12.8052    2.9262 C.ar    1  UNL1        0.0000
      7 C          -1.2174   13.2581    2.6951 C.ar    1  UNL1        0.0000
      8 C          -1.6148   13.5912    1.3813 C.ar    1  UNL1        0.0000
      9 C          -0.7147   13.4608    0.3412 C.ar    1  UNL1        0.0000
     10 C          -0.9222   14.4981   -0.5475 C.ar    1  UNL1        0.0000
     11 C           0.1817   15.0898   -1.2007 C.ar    1  UNL1        0.0000
     12 C           1.4572   14.6250   -0.9439 C.ar    1  UNL1        0.0000
     13 C           2.3228   15.7018   -0.9487 C.ar    1  UNL1        0.0000
     14 C           3.4025   15.7343   -0.0385 C.ar    1  UNL1        0.0000
     15 C           3.5816   14.6888    0.8469 C.ar    1  UNL1        0.0000
     16 C           4.0331   15.2057    2.0460 C.ar    1  UNL1        0.0000
     17 C           3.5966   14.6340    3.2617 C.ar    1  UNL1        0.0000
     18 C           2.7226   13.5642    3.2387 C.ar    1  UNL1        0.0000
     19 C           1.8452   13.6953    4.2979 C.ar    1  UNL1        0.0000
     20 C           0.4957   13.3096    4.1392 C.ar    1  UNL1        0.0000
     21 C          -0.5743   14.1958    4.6940 C.ar    1  UNL1        0.0000
     22 C          -1.6148   14.1644    3.8169 C.ar    1  UNL1        0.0000
     23 C          -2.4145   15.3823    3.5684 C.ar    1  UNL1        0.0000
     24 C          -2.7976   15.7034    2.3023 C.ar    1  UNL1        0.0000
     25 C          -2.4163   14.8362    1.1677 C.ar    1  UNL1        0.0000
     26 C          -1.9955   15.3871   -0.0039 C.ar    1  UNL1        0.0000
     27 C          -1.9173   16.8559   -0.1491 C.ar    1  UNL1        0.0000
     28 C          -0.8535   17.4260   -0.7785 C.ar    1  UNL1        0.0000
     29 C           0.2303   16.5801   -1.3208 C.ar    1  UNL1        0.0000
     30 C           1.5308   16.9518   -1.1677 C.ar    1  UNL1        0.0000
     31 C           1.8676   18.2039   -0.4581 C.ar    1  UNL1        0.0000
     32 C           2.9082   18.2352    0.4190 C.ar    1  UNL1        0.0000
     33 C           3.7079   17.0174    0.6675 C.ar    1  UNL1        0.0000
     34 C           4.0910   16.6963    1.9336 C.ar    1  UNL1        0.0000
     35 C           3.7096   17.5634    3.0682 C.ar    1  UNL1        0.0000
     36 C           3.2888   17.0125    4.2397 C.ar    1  UNL1        0.0000
     37 C           3.2106   15.5437    4.3848 C.ar    1  UNL1        0.0000
     38 C           2.1469   14.9736    5.0143 C.ar    1  UNL1        0.0000
     39 C           1.0630   15.8194    5.5567 C.ar    1  UNL1        0.0000
     40 C          -0.2375   15.4477    5.4037 C.ar    1  UNL1        0.0000
     41 C          -1.0295   16.6978    5.1845 C.ar    1  UNL1        0.0000
     42 C          -2.1092   16.6654    4.2744 C.ar    1  UNL1        0.0000
     43 C          -2.2883   17.7108    3.3889 C.ar    1  UNL1        0.0000
     44 C          -2.7398   17.1940    2.1898 C.ar    1  UNL1        0.0000
     45 C          -2.3032   17.7656    0.9741 C.ar    1  UNL1        0.0000
     46 C          -1.4292   18.8354    0.9971 C.ar    1  UNL1        0.0000
     47 C          -0.5519   18.7043   -0.0622 C.ar    1  UNL1        0.0000
     48 C           0.7976   19.0901    0.0967 C.ar    1  UNL1        0.0000
     49 C           1.2259   19.5944    1.3097 C.ar    1  UNL1        0.0000
     50 C           2.5107   19.1416    1.5408 C.ar    1  UNL1        0.0000
     51 C           2.9081   18.8083    2.8547 C.ar    1  UNL1        0.0000
     52 C           2.0080   18.9389    3.8947 C.ar    1  UNL1        0.0000
     53 C           2.2155   17.9015    4.7834 C.ar    1  UNL1        0.0000
     54 C           1.1116   17.3098    5.4365 C.ar    1  UNL1        0.0000
     55 C          -0.1639   17.7747    5.1798 C.ar    1  UNL1        0.0000
     56 C          -0.3672   18.8547    4.2845 C.ar    1  UNL1        0.0000
     57 C          -1.4101   18.8233    3.4054 C.ar    1  UNL1        0.0000
     58 C          -0.9884   19.3754    2.2313 C.ar    1  UNL1        0.0000
     59 C           0.3150   19.7479    2.3847 C.ar    1  UNL1        0.0000
     60 C           0.6989   19.4261    3.6536 C.ar    1  UNL1        0.0000
@<TRIPOS>BOND
     1     1     2   ar
     2     1     5   ar
     3     1     9   ar
     4     2     3   ar
     5     2    12   ar
     6     3     4   ar
     7     3    15   ar
     8     4     5   ar
     9     4    18   ar
    10     5     6   ar
    11     6     7   ar
    12     6    20   ar
    13     7     8   ar
    14     7    22   ar
    15     8     9   ar
    16     8    25   ar
    17     9    10   ar
    18    10    11   ar
    19    10    26   ar
    20    11    12   ar
    21    11    29   ar
    22    12    13   ar
    23    13    14   ar
    24    13    30   ar
    25    14    15   ar
    26    14    33   ar
    27    15    16   ar
    28    16    17   ar
    29    16    34   ar
    30    17    18   ar
    31    17    37   ar
    32    18    19   ar
    33    19    20   ar
    34    19    38   ar
    35    20    21   ar
    36    21    22   ar
    37    21    40   ar
    38    22    23   ar
    39    23    24   ar
    40    23    42   ar
    41    24    25   ar
    42    24    44   ar
    43    25    26   ar
    44    26    27   ar
    45    27    28   ar
    46    27    45   ar
    47    28    29   ar
    48    28    47   ar
    49    29    30   ar
    50    30    31   ar
    51    31    32   ar
    52    31    48   ar
    53    32    33   ar
    54    32    50   ar
    55    33    34   ar
    56    34    35   ar
    57    35    36   ar
    58    35    51   ar
    59    36    37   ar
    60    36    53   ar
    61    37    38   ar
    62    38    39   ar
    63    39    40   ar
    64    39    54   ar
    65    40    41   ar
    66    41    42   ar
    67    41    55   ar
    68    42    43   ar
    69    43    44   ar
    70    43    57   ar
    71    44    45   ar
    72    45    46   ar
    73    46    47   ar
    74    46    58   ar
    75    47    48   ar
    76    48    49   ar
    77    49    50   ar
    78    49    59   ar
    79    50    51   ar
    80    51    52   ar
    81    52    53   ar
    82    52    60   ar
    83    53    54   ar
    84    54    55   ar
    85    55    56   ar
    86    56    57   ar
    87    56    60   ar
    88    57    58   ar
    89    58    59   ar
    90    59    60   ar
@<TRIPOS>MOLECULE
*****
 60 90 0 0 0
SMALL
GASTEIGER

@<TRIPOS>ATOM
      1 C          -0.6385   14.1701    4.8690 C.ar    1  UNL1        0.0000
      2 C          -1.6861   14.1101    3.9973 C.ar    1  UNL1        0.0000
      3 C          -1.3400   13.2703    2.9792 C.ar    1  UNL1        0.0000
      4 C          -0.0783   12.8116    3.2218 C.ar    1  UNL1        0.0000
      5 C           0.3553   13.3677    4.3898 C.ar    1  UNL1        0.0000
      6 C           1.7100   13.7616    4.5258 C.ar    1  UNL1        0.0000
      7 C           2.0340   14.9446    5.1620 C.ar    1  UNL1        0.0000
      8 C           1.0051   15.7753    5.6581 C.ar    1  UNL1        0.0000
      9 C          -0.3143   15.3963    5.5020 C.ar    1  UNL1        0.0000
     10 C          -1.0675   16.5290    5.2597 C.ar    1  UNL1        0.0000
     11 C          -2.1522   16.4667    4.3571 C.ar    1  UNL1        0.0000
     12 C          -2.4486   15.2738    3.7261 C.ar    1  UNL1        0.0000
     13 C          -2.8644   15.5532    2.4385 C.ar    1  UNL1        0.0000
     14 C          -2.5058   14.6839    1.3845 C.ar    1  UNL1        0.0000
     15 C          -1.7432   13.5633    1.6524 C.ar    1  UNL1        0.0000
     16 C          -0.8734   13.3657    0.5972 C.ar    1  UNL1        0.0000
     17 C           0.4329   12.8906    0.8484 C.ar    1  UNL1        0.0000
     18 C           0.8269   12.6288    2.1465 C.ar    1  UNL1        0.0000
     19 C           2.1539   12.9895    2.2805 C.ar    1  UNL1        0.0000
     20 C           2.6028   13.5653    3.4896 C.ar    1  UNL1        0.0000
     21 C           3.5281   14.7391    3.4258 C.ar    1  UNL1        0.0000
     22 C           3.1826   15.5768    4.4416 C.ar    1  UNL1        0.0000
     23 C           3.2542   17.0412    4.2545 C.ar    1  UNL1        0.0000
     24 C           2.2626   17.8418    4.7326 C.ar    1  UNL1        0.0000
     25 C           1.1079   17.2521    5.4422 C.ar    1  UNL1        0.0000
     26 C          -0.1510   17.7098    5.2001 C.ar    1  UNL1        0.0000
     27 C          -0.3715   18.7996    4.2262 C.ar    1  UNL1        0.0000
     28 C          -1.4168   18.7396    3.3565 C.ar    1  UNL1        0.0000
     29 C          -2.3382   17.5843    3.3801 C.ar    1  UNL1        0.0000
     30 C          -2.7708   17.0294    2.2148 C.ar    1  UNL1        0.0000
     31 C          -2.3217   17.5786    0.9181 C.ar    1  UNL1        0.0000
     32 C          -1.9763   16.7409   -0.0977 C.ar    1  UNL1        0.0000
     33 C          -2.0478   15.2765    0.0895 C.ar    1  UNL1        0.0000
     34 C          -1.0563   14.4758   -0.3887 C.ar    1  UNL1        0.0000
     35 C           0.0984   15.0655   -1.0981 C.ar    1  UNL1        0.0000
     36 C           1.3573   14.6078   -0.8560 C.ar    1  UNL1        0.0000
     37 C           1.5777   13.5180    0.1178 C.ar    1  UNL1        0.0000
     38 C           2.6231   13.5780    0.9876 C.ar    1  UNL1        0.0000
     39 C           3.5446   14.7333    0.9639 C.ar    1  UNL1        0.0000
     40 C           3.9772   15.2882    2.1292 C.ar    1  UNL1        0.0000
     41 C           4.0707   16.7644    1.9055 C.ar    1  UNL1        0.0000
     42 C           3.7122   17.6338    2.9595 C.ar    1  UNL1        0.0000
     43 C           2.9495   18.7543    2.6917 C.ar    1  UNL1        0.0000
     44 C           2.0797   18.9519    3.7467 C.ar    1  UNL1        0.0000
     45 C           0.7733   19.4270    3.4955 C.ar    1  UNL1        0.0000
     46 C           0.3793   19.6889    2.1974 C.ar    1  UNL1        0.0000
     47 C          -0.9477   19.3282    2.0636 C.ar    1  UNL1        0.0000
     48 C          -1.3965   18.7525    0.8543 C.ar    1  UNL1        0.0000
     49 C          -0.5037   18.5561   -0.1817 C.ar    1  UNL1        0.0000
     50 C          -0.8277   17.3731   -0.8180 C.ar    1  UNL1        0.0000
     51 C           0.2013   16.5422   -1.3141 C.ar    1  UNL1        0.0000
     52 C           1.5207   16.9214   -1.1581 C.ar    1  UNL1        0.0000
     53 C           2.2739   15.7887   -0.9156 C.ar    1  UNL1        0.0000
     54 C           3.3586   15.8509   -0.0130 C.ar    1  UNL1        0.0000
     55 C           3.6550   17.0439    0.6178 C.ar    1  UNL1        0.0000
     56 C           2.8925   18.2076    0.3467 C.ar    1  UNL1        0.0000
     57 C           2.5462   19.0473    1.3647 C.ar    1  UNL1        0.0000
     58 C           1.2846   19.5061    1.1221 C.ar    1  UNL1        0.0000
     59 C           0.8511   18.9499   -0.0458 C.ar    1  UNL1        0.0000
     60 C           1.8448   18.1475   -0.5250 C.ar    1  UNL1        0.0000
@<TRIPOS>BOND
     1     1     2   ar
     2     1     5   ar
     3     1     9   ar
     4     2     3   ar
     5     2    12   ar
     6     3     4   ar
     7     3    15   ar
     8     4     5   ar
     9     4    18   ar
    10     5     6   ar
    11     6     7   ar
    12     6    20   ar
    13     7     8   ar
    14     7    22   ar
    15     8     9   ar
    16     8    25   ar
    17     9    10   ar
    18    10    11   ar
    19    10    26   ar
    20    11    12   ar
    21    11    29   ar
    22    12    13   ar
    23    13    14   ar
    24    13    30   ar
    25    14    15   ar
    26    14    33   ar
    27    15    16   ar
    28    16    17   ar
    29    16    34   ar
    30    17    18   ar
    31    17    37   ar
    32    18    19   ar
    33    19    20   ar
    34    19    38   ar
    35    20    21   ar
    36    21    22   ar
    37    21    40   ar
    38    22    23   ar
    39    23    24   ar
    40    23    42   ar
    41    24    25   ar
    42    24    44   ar
    43    25    26   ar
    44    26    27   ar
    45    27    28   ar
    46    27    45   ar
    47    28    29   ar
    48    28    47   ar
    49    29    30   ar
    50    30    31   ar
    51    31    32   ar
    52    31    48   ar
    53    32    33   ar
    54    32    50   ar
    55    33    34   ar
    56    34    35   ar
    57    35    36   ar
    58    35    51   ar
    59    36    37   ar
    60    36    53   ar
    61    37    38   ar
    62    38    39   ar
    63    39    40   ar
    64    39    54   ar
    65    40    41   ar
    66    41    42   ar
    67    41    55   ar
    68    42    43   ar
    69    43    44   ar
    70    43    57   ar
    71    44    45   ar
    72    45    46   ar
    73    46    47   ar
    74    46    58   ar
    75    47    48   ar
    76    48    49   ar
    77    49    50   ar
    78    49    59   ar
    79    50    51   ar
    80    51    52   ar
    81    52    53   ar
    82    52    60   ar
    83    53    54   ar
    84    54    55   ar
    85    55    56   ar
    86    56    57   ar
    87    56    60   ar
    88    57    58   ar
    89    58    59   ar
    90    59    60   ar
@<TRIPOS>MOLECULE
*****
 60 90 0 0 0
SMALL
GASTEIGER

@<TRIPOS>ATOM
      1 C           0.8765   19.0213   -0.0626 C.ar    1  UNL1        0.0000
      2 C           1.2915   19.5669    1.1169 C.ar    1  UNL1        0.0000
      3 C           2.5499   19.1069    1.3747 C.ar    1  UNL1        0.0000
      4 C           2.9123   18.2769    0.3545 C.ar    1  UNL1        0.0000
      5 C           1.8782   18.2240   -0.5338 C.ar    1  UNL1        0.0000
      6 C           1.5648   17.0035   -1.1829 C.ar    1  UNL1        0.0000
      7 C           0.2482   16.6249   -1.3627 C.ar    1  UNL1        0.0000
      8 C          -0.7888   17.4504   -0.8748 C.ar    1  UNL1        0.0000
      9 C          -0.4758   18.6277   -0.2229 C.ar    1  UNL1        0.0000
     10 C          -1.3845   18.8139    0.8011 C.ar    1  UNL1        0.0000
     11 C          -0.9547   19.3788    2.0223 C.ar    1  UNL1        0.0000
     12 C           0.3698   19.7392    2.1799 C.ar    1  UNL1        0.0000
     13 C           0.7442   19.4657    3.4814 C.ar    1  UNL1        0.0000
     14 C           2.0469   18.9893    3.7482 C.ar    1  UNL1        0.0000
     15 C           2.9330   18.8021    2.7048 C.ar    1  UNL1        0.0000
     16 C           3.6924   17.6796    2.9741 C.ar    1  UNL1        0.0000
     17 C           4.0678   16.8203    1.9177 C.ar    1  UNL1        0.0000
     18 C           3.6715   17.1113    0.6265 C.ar    1  UNL1        0.0000
     19 C           3.3859   15.9240   -0.0198 C.ar    1  UNL1        0.0000
     20 C           2.3152   15.8691   -0.9394 C.ar    1  UNL1        0.0000
     21 C           1.3988   14.6872   -0.9046 C.ar    1  UNL1        0.0000
     22 C           0.1434   15.1462   -1.1618 C.ar    1  UNL1        0.0000
     23 C          -1.0216   14.5491   -0.4755 C.ar    1  UNL1        0.0000
     24 C          -2.0210   15.3446   -0.0054 C.ar    1  UNL1        0.0000
     25 C          -1.9479   16.8108   -0.1780 C.ar    1  UNL1        0.0000
     26 C          -2.3096   17.6389    0.8400 C.ar    1  UNL1        0.0000
     27 C          -2.7779   17.0775    2.1245 C.ar    1  UNL1        0.0000
     28 C          -2.3638   17.6219    3.3014 C.ar    1  UNL1        0.0000
     29 C          -1.4430   18.7780    3.3024 C.ar    1  UNL1        0.0000
     30 C          -0.4111   18.8308    4.1886 C.ar    1  UNL1        0.0000
     31 C          -0.2047   17.7322    5.1557 C.ar    1  UNL1        0.0000
     32 C           1.0508   17.2732    5.4129 C.ar    1  UNL1        0.0000
     33 C           2.2157   17.8703    4.7266 C.ar    1  UNL1        0.0000
     34 C           3.2152   17.0748    4.2564 C.ar    1  UNL1        0.0000
     35 C           3.1420   15.6087    4.4289 C.ar    1  UNL1        0.0000
     36 C           3.5037   14.7806    3.4110 C.ar    1  UNL1        0.0000
     37 C           3.9720   15.3421    2.1265 C.ar    1  UNL1        0.0000
     38 C           3.5579   14.7976    0.9496 C.ar    1  UNL1        0.0000
     39 C           2.6372   13.6415    0.9485 C.ar    1  UNL1        0.0000
     40 C           1.6053   13.5886    0.0623 C.ar    1  UNL1        0.0000
     41 C           0.4500   12.9538    0.7696 C.ar    1  UNL1        0.0000
     42 C          -0.8527   13.4301    0.5028 C.ar    1  UNL1        0.0000
     43 C          -1.7389   13.6175    1.5462 C.ar    1  UNL1        0.0000
     44 C          -2.4982   14.7398    1.2770 C.ar    1  UNL1        0.0000
     45 C          -2.8736   15.5992    2.3333 C.ar    1  UNL1        0.0000
     46 C          -2.4773   15.3082    3.6245 C.ar    1  UNL1        0.0000
     47 C          -2.1918   16.4956    4.2708 C.ar    1  UNL1        0.0000
     48 C          -1.1211   16.5503    5.1905 C.ar    1  UNL1        0.0000
     49 C          -0.3707   15.4160    5.4339 C.ar    1  UNL1        0.0000
     50 C           0.9459   15.7945    5.6138 C.ar    1  UNL1        0.0000
     51 C           1.9831   14.9690    5.1257 C.ar    1  UNL1        0.0000
     52 C           1.6699   13.7917    4.4739 C.ar    1  UNL1        0.0000
     53 C           2.5786   13.6056    3.4498 C.ar    1  UNL1        0.0000
     54 C           2.1488   13.0407    2.2286 C.ar    1  UNL1        0.0000
     55 C           0.8243   12.6802    2.0711 C.ar    1  UNL1        0.0000
     56 C          -0.0974   12.8525    3.1341 C.ar    1  UNL1        0.0000
     57 C          -1.3557   13.3126    2.8764 C.ar    1  UNL1        0.0000
     58 C          -1.7182   14.1425    3.8966 C.ar    1  UNL1        0.0000
     59 C          -0.6840   14.1955    4.7848 C.ar    1  UNL1        0.0000
     60 C           0.3177   13.3982    4.3135 C.ar    1  UNL1        0.0000
@<TRIPOS>BOND
     1     1     2   ar
     2     1     5   ar
     3     1     9   ar
     4     2     3   ar
     5     2    12   ar
     6     3     4   ar
     7     3    15   ar
     8     4     5   ar
     9     4    18   ar
    10     5     6   ar
    11     6     7   ar
    12     6    20   ar
    13     7     8   ar
    14     7    22   ar
    15     8     9   ar
    16     8    25   ar
    17     9    10   ar
    18    10    11   ar
    19    10    26   ar
    20    11    12   ar
    21    11    29   ar
    22    12    13   ar
    23    13    14   ar
    24    13    30   ar
    25    14    15   ar
    26    14    33   ar
    27    15    16   ar
    28    16    17   ar
    29    16    34   ar
    30    17    18   ar
    31    17    37   ar
    32    18    19   ar
    33    19    20   ar
    34    19    38   ar
    35    20    21   ar
    36    21    22   ar
    37    21    40   ar
    38    22    23   ar
    39    23    24   ar
    40    23    42   ar
    41    24    25   ar
    42    24    44   ar
    43    25    26   ar
    44    26    27   ar
    45    27    28   ar
    46    27    45   ar
    47    28    29   ar
    48    28    47   ar
    49    29    30   ar
    50    30    31   ar
    51    31    32   ar
    52    31    48   ar
    53    32    33   ar
    54    32    50   ar
    55    33    34   ar
    56    34    35   ar
    57    35    36   ar
    58    35    51   ar
    59    36    37   ar
    60    36    53   ar
    61    37    38   ar
    62    38    39   ar
    63    39    40   ar
    64    39    54   ar
    65    40    41   ar
    66    41    42   ar
    67    41    55   ar
    68    42    43   ar
    69    43    44   ar
    70    43    57   ar
    71    44    45   ar
    72    45    46   ar
    73    46    47   ar
    74    46    58   ar
    75    47    48   ar
    76    48    49   ar
    77    49    50   ar
    78    49    59   ar
    79    50    51   ar
    80    51    52   ar
    81    52    53   ar
    82    52    60   ar
    83    53    54   ar
    84    54    55   ar
    85    55    56   ar
    86    56    57   ar
    87    56    60   ar
    88    57    58   ar
    89    58    59   ar
    90    59    60   ar
@<TRIPOS>MOLECULE
*****
 60 90 0 0 0
SMALL
GASTEIGER

@<TRIPOS>ATOM
      1 C          -1.2844   13.2551    2.8886 C.ar    1  UNL1        0.0000
      2 C          -0.0173   12.8120    3.1319 C.ar    1  UNL1        0.0000
      3 C           0.4018   13.3588    4.3096 C.ar    1  UNL1        0.0000
      4 C          -0.6064   14.1399    4.7939 C.ar    1  UNL1        0.0000
      5 C          -1.6485   14.0758    3.9157 C.ar    1  UNL1        0.0000
      6 C          -2.4268   15.2316    3.6559 C.ar    1  UNL1        0.0000
      7 C          -2.8399   15.5221    2.3697 C.ar    1  UNL1        0.0000
      8 C          -2.4629   14.6723    1.3064 C.ar    1  UNL1        0.0000
      9 C          -1.6850   13.5598    1.5635 C.ar    1  UNL1        0.0000
     10 C          -0.8067   13.3891    0.5106 C.ar    1  UNL1        0.0000
     11 C           0.5052   12.9303    0.7626 C.ar    1  UNL1        0.0000
     12 C           0.8963   12.6570    2.0593 C.ar    1  UNL1        0.0000
     13 C           2.2170   13.0355    2.2053 C.ar    1  UNL1        0.0000
     14 C           2.6508   13.6018    3.4244 C.ar    1  UNL1        0.0000
     15 C           1.7497   13.7709    4.4582 C.ar    1  UNL1        0.0000
     16 C           2.0526   14.9499    5.1118 C.ar    1  UNL1        0.0000
     17 C           1.0088   15.7586    5.6134 C.ar    1  UNL1        0.0000
     18 C          -0.3040   15.3622    5.4449 C.ar    1  UNL1        0.0000
     19 C          -1.0727   16.4866    5.2134 C.ar    1  UNL1        0.0000
     20 C          -2.1516   16.4204    4.3042 C.ar    1  UNL1        0.0000
     21 C          -2.3491   17.5479    3.3411 C.ar    1  UNL1        0.0000
     22 C          -2.7672   17.0023    2.1662 C.ar    1  UNL1        0.0000
     23 C          -2.3195   17.5754    0.8794 C.ar    1  UNL1        0.0000
     24 C          -1.9562   16.7565   -0.1454 C.ar    1  UNL1        0.0000
     25 C          -2.0070   15.2889    0.0218 C.ar    1  UNL1        0.0000
     26 C          -1.0010   14.5095   -0.4615 C.ar    1  UNL1        0.0000
     27 C           0.1486   15.1257   -1.1566 C.ar    1  UNL1        0.0000
     28 C           1.4128   14.6835   -0.9138 C.ar    1  UNL1        0.0000
     29 C           1.6443   13.5843    0.0467 C.ar    1  UNL1        0.0000
     30 C           2.6841   13.6483    0.9230 C.ar    1  UNL1        0.0000
     31 C           3.5883   14.8174    0.9197 C.ar    1  UNL1        0.0000
     32 C           4.0064   15.3630    2.0946 C.ar    1  UNL1        0.0000
     33 C           3.5588   14.7899    3.3813 C.ar    1  UNL1        0.0000
     34 C           3.1954   15.6088    4.4062 C.ar    1  UNL1        0.0000
     35 C           3.2462   17.0764    4.2390 C.ar    1  UNL1        0.0000
     36 C           2.2402   17.8558    4.7223 C.ar    1  UNL1        0.0000
     37 C           1.0907   17.2395    5.4174 C.ar    1  UNL1        0.0000
     38 C          -0.1736   17.6817    5.1746 C.ar    1  UNL1        0.0000
     39 C          -0.4052   18.7809    4.2141 C.ar    1  UNL1        0.0000
     40 C          -1.4449   18.7171    3.3379 C.ar    1  UNL1        0.0000
     41 C          -0.9778   19.3297    2.0555 C.ar    1  UNL1        0.0000
     42 C          -1.4115   18.7636    0.8363 C.ar    1  UNL1        0.0000
     43 C          -0.5106   18.5943   -0.1974 C.ar    1  UNL1        0.0000
     44 C          -0.8134   17.4154   -0.8509 C.ar    1  UNL1        0.0000
     45 C           0.2305   16.6066   -1.3525 C.ar    1  UNL1        0.0000
     46 C           1.5432   17.0031   -1.1840 C.ar    1  UNL1        0.0000
     47 C           2.3119   15.8786   -0.9527 C.ar    1  UNL1        0.0000
     48 C           3.3909   15.9450   -0.0434 C.ar    1  UNL1        0.0000
     49 C           3.6660   17.1337    0.6049 C.ar    1  UNL1        0.0000
     50 C           4.0791   16.8433    1.8910 C.ar    1  UNL1        0.0000
     51 C           3.7020   17.6930    2.9545 C.ar    1  UNL1        0.0000
     52 C           2.9243   18.8056    2.6973 C.ar    1  UNL1        0.0000
     53 C           2.0459   18.9762    3.7501 C.ar    1  UNL1        0.0000
     54 C           0.7340   19.4350    3.4981 C.ar    1  UNL1        0.0000
     55 C           0.3430   19.7084    2.2015 C.ar    1  UNL1        0.0000
     56 C           1.2565   19.5533    1.1288 C.ar    1  UNL1        0.0000
     57 C           0.8375   19.0065   -0.0488 C.ar    1  UNL1        0.0000
     58 C           1.8457   18.2254   -0.5332 C.ar    1  UNL1        0.0000
     59 C           2.8877   18.2895    0.3451 C.ar    1  UNL1        0.0000
     60 C           2.5236   19.1102    1.3722 C.ar    1  UNL1        0.0000
@<TRIPOS>BOND
     1     1     2   ar
     2     1     5   ar
     3     1     9   ar
     4     2     3   ar
     5     2    12   ar
     6     3     4   ar
     7     3    15   ar
     8     4     5   ar
     9     4    18   ar
    10     5     6   ar
    11     6     7   ar
    12     6    20   ar
    13     7     8   ar
    14     7    22   ar
    15     8     9   ar
    16     8    25   ar
    17     9    10   ar
    18    10    11   ar
    19    10    26   ar
    20    11    12   ar
    21    11    29   ar
    22    12    13   ar
    23    13    14   ar
    24    13    30   ar
    25    14    15   ar
    26    14    33   ar
    27    15    16   ar
    28    16    17   ar
    29    16    34   ar
    30    17    18   ar
    31    17    37   ar
    32    18    19   ar
    33    19    20   ar
    34    19    38   ar
    35    20    21   ar
    36    21    22   ar
    37    21    40   ar
    38    22    23   ar
    39    23    24   ar
    40    23    42   ar
    41    24    25   ar
    42    24    44   ar
    43    25    26   ar
    44    26    27   ar
    45    27    28   ar
    46    27    45   ar
    47    28    29   ar
    48    28    47   ar
    49    29    30   ar
    50    30    31   ar
    51    31    32   ar
    52    31    48   ar
    53    32    33   ar
    54    32    50   ar
    55    33    34   ar
    56    34    35   ar
    57    35    36   ar
    58    35    51   ar
    59    36    37   ar
    60    36    53   ar
    61    37    38   ar
    62    38    39   ar
    63    39    40   ar
    64    39    54   ar
    65    40    41   ar
    66    41    42   ar
    67    41    55   ar
    68    42    43   ar
    69    43    44   ar
    70    43    57   ar
    71    44    45   ar
    72    45    46   ar
    73    46    47   ar
    74    46    58   ar
    75    47    48   ar
    76    48    49   ar
    77    49    50   ar
    78    49    59   ar
    79    50    51   ar
    80    51    52   ar
    81    52    53   ar
    82    52    60   ar
    83    53    54   ar
    84    54    55   ar
    85    55    56   ar
    86    56    57   ar
    87    56    60   ar
    88    57    58   ar
    89    58    59   ar
    90    59    60   ar
@<TRIPOS>MOLECULE
*****
 60 90 0 0 0
SMALL
GASTEIGER

@<TRIPOS>ATOM
      1 C           0.3361   13.3677    4.3848 C.ar    1  UNL1        0.0000
      2 C          -0.6588   14.1730    4.8567 C.ar    1  UNL1        0.0000
      3 C          -1.7018   14.1131    3.9791 C.ar    1  UNL1        0.0000
      4 C          -1.3512   13.2708    2.9649 C.ar    1  UNL1        0.0000
      5 C          -0.0917   12.8101    3.2156 C.ar    1  UNL1        0.0000
      6 C           0.8193   12.6234    2.1459 C.ar    1  UNL1        0.0000
      7 C           2.1462   12.9820    2.2866 C.ar    1  UNL1        0.0000
      8 C           2.5892   13.5593    3.4972 C.ar    1  UNL1        0.0000
      9 C           1.6909   13.7594    4.5277 C.ar    1  UNL1        0.0000
     10 C           2.0134   14.9430    5.1634 C.ar    1  UNL1        0.0000
     11 C           0.9832   15.7767    5.6520 C.ar    1  UNL1        0.0000
     12 C          -0.3360   15.3999    5.4891 C.ar    1  UNL1        0.0000
     13 C          -1.0857   16.5334    5.2402 C.ar    1  UNL1        0.0000
     14 C          -2.1654   16.4714    4.3315 C.ar    1  UNL1        0.0000
     15 C          -2.4604   15.2777    3.7013 C.ar    1  UNL1        0.0000
     16 C          -2.8682   15.5553    2.4108 C.ar    1  UNL1        0.0000
     17 C          -2.5054   14.6831    1.3606 C.ar    1  UNL1        0.0000
     18 C          -1.7463   13.5618    1.6351 C.ar    1  UNL1        0.0000
     19 C          -0.8708   13.3604    0.5855 C.ar    1  UNL1        0.0000
     20 C           0.4332   12.8835    0.8449 C.ar    1  UNL1        0.0000
     21 C           1.5833   13.5073    0.1196 C.ar    1  UNL1        0.0000
     22 C           2.6237   13.5670    0.9953 C.ar    1  UNL1        0.0000
     23 C           3.5475   14.7207    0.9746 C.ar    1  UNL1        0.0000
     24 C           3.9744   15.2770    2.1412 C.ar    1  UNL1        0.0000
     25 C           3.5170   14.7312    3.4364 C.ar    1  UNL1        0.0000
     26 C           3.1673   15.5716    4.4484 C.ar    1  UNL1        0.0000
     27 C           3.2427   17.0355    4.2588 C.ar    1  UNL1        0.0000
     28 C           2.2499   17.8390    4.7297 C.ar    1  UNL1        0.0000
     29 C           1.0900   17.2528    5.4336 C.ar    1  UNL1        0.0000
     30 C          -0.1667   17.7124    5.1834 C.ar    1  UNL1        0.0000
     31 C          -0.3794   18.8007    4.2061 C.ar    1  UNL1        0.0000
     32 C          -1.4200   18.7409    3.3305 C.ar    1  UNL1        0.0000
     33 C          -2.3437   17.5873    3.3512 C.ar    1  UNL1        0.0000
     34 C          -2.7707   17.0309    2.1846 C.ar    1  UNL1        0.0000
     35 C          -2.3132   17.5767    0.8895 C.ar    1  UNL1        0.0000
     36 C          -1.9635   16.7362   -0.1226 C.ar    1  UNL1        0.0000
     37 C          -2.0388   15.2724    0.0671 C.ar    1  UNL1        0.0000
     38 C          -1.0461   14.4689   -0.4038 C.ar    1  UNL1        0.0000
     39 C           0.1138   15.0550   -1.1078 C.ar    1  UNL1        0.0000
     40 C           1.3705   14.5954   -0.8577 C.ar    1  UNL1        0.0000
     41 C           2.2895   15.7745   -0.9143 C.ar    1  UNL1        0.0000
     42 C           3.3692   15.8366   -0.0057 C.ar    1  UNL1        0.0000
     43 C           3.6642   17.0302    0.6245 C.ar    1  UNL1        0.0000
     44 C           4.0720   16.7526    1.9150 C.ar    1  UNL1        0.0000
     45 C           3.7091   17.6247    2.9652 C.ar    1  UNL1        0.0000
     46 C           2.9501   18.7461    2.6907 C.ar    1  UNL1        0.0000
     47 C           2.0746   18.9475    3.7405 C.ar    1  UNL1        0.0000
     48 C           0.7707   19.4245    3.4809 C.ar    1  UNL1        0.0000
     49 C           0.3845   19.6844    2.1800 C.ar    1  UNL1        0.0000
     50 C          -0.9424   19.3260    2.0392 C.ar    1  UNL1        0.0000
     51 C          -1.3854   18.7485    0.8286 C.ar    1  UNL1        0.0000
     52 C          -0.4871   18.5486   -0.2020 C.ar    1  UNL1        0.0000
     53 C          -0.8095   17.3649   -0.8376 C.ar    1  UNL1        0.0000
     54 C           0.2206   16.5311   -1.3262 C.ar    1  UNL1        0.0000
     55 C           1.5399   16.9081   -1.1633 C.ar    1  UNL1        0.0000
     56 C           1.8627   18.1349   -0.5309 C.ar    1  UNL1        0.0000
     57 C           2.9055   18.1948    0.3467 C.ar    1  UNL1        0.0000
     58 C           2.5550   19.0372    1.3609 C.ar    1  UNL1        0.0000
     59 C           1.2955   19.4978    1.1102 C.ar    1  UNL1        0.0000
     60 C           0.8677   18.9401   -0.0590 C.ar    1  UNL1        0.0000
@<TRIPOS>BOND
     1     1     2   ar
     2     1     5   ar
     3     1     9   ar
     4     2     3   ar
     5     2    12   ar
     6     3     4   ar
     7     3    15   ar
     8     4     5   ar
     9     4    18   ar
    10     5     6   ar
    11     6     7   ar
    12     6    20   ar
    13     7     8   ar
    14     7    22   ar
    15     8     9   ar
    16     8    25   ar
    17     9    10   ar
    18    10    11   ar
    19    10    26   ar
    20    11    12   ar
    21    11    29   ar
    22    12    13   ar
    23    13    14   ar
    24    13    30   ar
    25    14    15   ar
    26    14    33   ar
    27    15    16   ar
    28    16    17   ar
    29    16    34   ar
    30    17    18   ar
    31    17    37   ar
    32    18    19   ar
    33    19    20   ar
    34    19    38   ar
    35    20    21   ar
    36    21    22   ar
    37    21    40   ar
    38    22    23   ar
    39    23    24   ar
    40    23    42   ar
    41    24    25   ar
    42    24    44   ar
    43    25    26   ar
    44    26    27   ar
    45    27    28   ar
    46    27    45   ar
    47    28    29   ar
    48    28    47   ar
    49    29    30   ar
    50    30    31   ar
    51    31    32   ar
    52    31    48   ar
    53    32    33   ar
    54    32    50   ar
    55    33    34   ar
    56    34    35   ar
    57    35    36   ar
    58    35    51   ar
    59    36    37   ar
    60    36    53   ar
    61    37    38   ar
    62    38    39   ar
    63    39    40   ar
    64    39    54   ar
    65    40    41   ar
    66    41    42   ar
    67    41    55   ar
    68    42    43   ar
    69    43    44   ar
    70    43    57   ar
    71    44    45   ar
    72    45    46   ar
    73    46    47   ar
    74    46    58   ar
    75    47    48   ar
    76    48    49   ar
    77    49    50   ar
    78    49    59   ar
    79    50    51   ar
    80    51    52   ar
    81    52    53   ar
    82    52    60   ar
    83    53    54   ar
    84    54    55   ar
    85    55    56   ar
    86    56    57   ar
    87    56    60   ar
    88    57    58   ar
    89    58    59   ar
    90    59    60   ar
@<TRIPOS>MOLECULE
*****
 60 90 0 0 0
SMALL
GASTEIGER

@<TRIPOS>ATOM
      1 C           0.2952   16.1838    5.5531 C.ar    1  UNL1        0.0000
      2 C           1.5553   15.6813    5.4095 C.ar    1  UNL1        0.0000
      3 C           2.3855   16.7126    5.0797 C.ar    1  UNL1        0.0000
      4 C           1.6383   17.8524    5.0195 C.ar    1  UNL1        0.0000
      5 C           0.3464   17.5256    5.3121 C.ar    1  UNL1        0.0000
      6 C          -0.7173   18.1620    4.6246 C.ar    1  UNL1        0.0000
      7 C          -1.8194   17.4358    4.2156 C.ar    1  UNL1        0.0000
      8 C          -1.8724   16.0466    4.4652 C.ar    1  UNL1        0.0000
      9 C          -0.8217   15.4285    5.1156 C.ar    1  UNL1        0.0000
     10 C          -0.6450   14.1741    4.5641 C.ar    1  UNL1        0.0000
     11 C           0.6598   13.6538    4.4155 C.ar    1  UNL1        0.0000
     12 C           1.7455   14.4049    4.8231 C.ar    1  UNL1        0.0000
     13 C           2.7819   14.1907    3.9350 C.ar    1  UNL1        0.0000
     14 C           3.6413   15.2584    3.5935 C.ar    1  UNL1        0.0000
     15 C           3.4364   16.5058    4.1514 C.ar    1  UNL1        0.0000
     16 C           3.7255   17.4626    3.1976 C.ar    1  UNL1        0.0000
     17 C           2.9519   18.6429    3.1353 C.ar    1  UNL1        0.0000
     18 C           1.9143   18.8277    4.0287 C.ar    1  UNL1        0.0000
     19 C           0.8817   19.4682    3.3711 C.ar    1  UNL1        0.0000
     20 C          -0.4559   19.1299    3.6739 C.ar    1  UNL1        0.0000
     21 C          -1.4285   18.9709    2.5485 C.ar    1  UNL1        0.0000
     22 C          -2.2567   17.9420    2.8776 C.ar    1  UNL1        0.0000
     23 C          -2.7445   17.0170    1.8329 C.ar    1  UNL1        0.0000
     24 C          -2.7956   15.6782    2.0735 C.ar    1  UNL1        0.0000
     25 C          -2.3637   15.1406    3.3808 C.ar    1  UNL1        0.0000
     26 C          -1.6181   14.0033    3.4409 C.ar    1  UNL1        0.0000
     27 C          -1.2357   13.2985    2.1993 C.ar    1  UNL1        0.0000
     28 C           0.0217   12.7972    2.0560 C.ar    1  UNL1        0.0000
     29 C           1.0128   12.9543    3.1411 C.ar    1  UNL1        0.0000
     30 C           2.3018   13.2804    2.8492 C.ar    1  UNL1        0.0000
     31 C           2.7187   13.4795    1.4452 C.ar    1  UNL1        0.0000
     32 C           3.5469   14.5085    1.1162 C.ar    1  UNL1        0.0000
     33 C           4.0346   15.4334    2.1607 C.ar    1  UNL1        0.0000
     34 C           4.0858   16.7722    1.9203 C.ar    1  UNL1        0.0000
     35 C           3.6538   17.3098    0.6131 C.ar    1  UNL1        0.0000
     36 C           2.9082   18.4471    0.5530 C.ar    1  UNL1        0.0000
     37 C           2.5258   19.1518    1.7946 C.ar    1  UNL1        0.0000
     38 C           1.2684   19.6532    1.9378 C.ar    1  UNL1        0.0000
     39 C           0.2773   19.4961    0.8527 C.ar    1  UNL1        0.0000
     40 C          -1.0117   19.1701    1.1446 C.ar    1  UNL1        0.0000
     41 C          -1.4918   18.2597    0.0589 C.ar    1  UNL1        0.0000
     42 C          -2.3512   17.1920    0.4002 C.ar    1  UNL1        0.0000
     43 C          -2.1463   15.9447   -0.1576 C.ar    1  UNL1        0.0000
     44 C          -2.4353   14.9878    0.7962 C.ar    1  UNL1        0.0000
     45 C          -1.6616   13.8076    0.8586 C.ar    1  UNL1        0.0000
     46 C          -0.6241   13.6227   -0.0349 C.ar    1  UNL1        0.0000
     47 C           0.4084   12.9821    0.6228 C.ar    1  UNL1        0.0000
     48 C           1.7460   13.3205    0.3198 C.ar    1  UNL1        0.0000
     49 C           2.0074   14.2884   -0.6308 C.ar    1  UNL1        0.0000
     50 C           3.1095   15.0146   -0.2219 C.ar    1  UNL1        0.0000
     51 C           3.1625   16.4039   -0.4713 C.ar    1  UNL1        0.0000
     52 C           2.1118   17.0219   -1.1219 C.ar    1  UNL1        0.0000
     53 C           1.9350   18.2763   -0.5704 C.ar    1  UNL1        0.0000
     54 C           0.6303   18.7966   -0.4216 C.ar    1  UNL1        0.0000
     55 C          -0.4554   18.0455   -0.8294 C.ar    1  UNL1        0.0000
     56 C          -0.2653   16.7691   -1.4157 C.ar    1  UNL1        0.0000
     57 C          -1.0954   15.7378   -1.0860 C.ar    1  UNL1        0.0000
     58 C          -0.3482   14.5980   -1.0258 C.ar    1  UNL1        0.0000
     59 C           0.9437   14.9248   -1.3182 C.ar    1  UNL1        0.0000
     60 C           0.9949   16.2666   -1.5593 C.ar    1  UNL1        0.0000
@<TRIPOS>BOND
     1     1     2   ar
     2     1     5   ar
     3     1     9   ar
     4     2     3   ar
     5     2    12   ar
     6     3     4   ar
     7     3    15   ar
     8     4     5   ar
     9     4    18   ar
    10     5     6   ar
    11     6     7   ar
    12     6    20   ar
    13     7     8   ar
    14     7    22   ar
    15     8     9   ar
    16     8    25   ar
    17     9    10   ar
    18    10    11   ar
    19    10    26   ar
    20    11    12   ar
    21    11    29   ar
    22    12    13   ar
    23    13    14   ar
    24    13    30   ar
    25    14    15   ar
    26    14    33   ar
    27    15    16   ar
    28    16    17   ar
    29    16    34   ar
    30    17    18   ar
    31    17    37   ar
    32    18    19   ar
    33    19    20   ar
    34    19    38   ar
    35    20    21   ar
    36    21    22   ar
    37    21    40   ar
    38    22    23   ar
    39    23    24   ar
    40    23    42   ar
    41    24    25   ar
    42    24    44   ar
    43    25    26   ar
    44    26    27   ar
    45    27    28   ar
    46    27    45   ar
    47    28    29   ar
    48    28    47   ar
    49    29    30   ar
    50    30    31   ar
    51    31    32   ar
    52    31    48   ar
    53    32    33   ar
    54    32    50   ar
    55    33    34   ar
    56    34    35   ar
    57    35    36   ar
    58    35    51   ar
    59    36    37   ar
    60    36    53   ar
    61    37    38   ar
    62    38    39   ar
    63    39    40   ar
    64    39    54   ar
    65    40    41   ar
    66    41    42   ar
    67    41    55   ar
    68    42    43   ar
    69    43    44   ar
    70    43    57   ar
    71    44    45   ar
    72    45    46   ar
    73    46    47   ar
    74    46    58   ar
    75    47    48   ar
    76    48    49   ar
    77    49    50   ar
    78    49    59   ar
    79    50    51   ar
    80    51    52   ar
    81    52    53   ar
    82    52    60   ar
    83    53    54   ar
    84    54    55   ar
    85    55    56   ar
    86    56    57   ar
    87    56    60   ar
    88    57    58   ar
    89    58    59   ar
    90    59    60   ar
@<TRIPOS>MOLECULE
*****
 60 90 0 0 0
SMALL
GASTEIGER

@<TRIPOS>ATOM
      1 C          -1.6552   14.0734    3.9380 C.ar    1  UNL1        0.0000
      2 C          -1.2946   13.2492    2.9124 C.ar    1  UNL1        0.0000
      3 C          -0.0279   12.8039    3.1548 C.ar    1  UNL1        0.0000
      4 C           0.3942   13.3531    4.3301 C.ar    1  UNL1        0.0000
      5 C          -0.6116   14.1376    4.8142 C.ar    1  UNL1        0.0000
      6 C          -0.3055   15.3609    5.4613 C.ar    1  UNL1        0.0000
      7 C          -1.0722   16.4865    5.2282 C.ar    1  UNL1        0.0000
      8 C          -2.1527   16.4200    4.3210 C.ar    1  UNL1        0.0000
      9 C          -2.4316   15.2302    3.6764 C.ar    1  UNL1        0.0000
     10 C          -2.8462   15.5180    2.3902 C.ar    1  UNL1        0.0000
     11 C          -2.4728   14.6646    1.3284 C.ar    1  UNL1        0.0000
     12 C          -1.6968   13.5511    1.5871 C.ar    1  UNL1        0.0000
     13 C          -0.8207   13.3758    0.5333 C.ar    1  UNL1        0.0000
     14 C           0.4907   12.9149    0.7842 C.ar    1  UNL1        0.0000
     15 C           0.8834   12.6442    2.0810 C.ar    1  UNL1        0.0000
     16 C           2.2052   13.0204    2.2236 C.ar    1  UNL1        0.0000
     17 C           2.6422   13.5888    3.4406 C.ar    1  UNL1        0.0000
     18 C           1.7433   13.7628    4.4753 C.ar    1  UNL1        0.0000
     19 C           2.0497   14.9428    5.1253 C.ar    1  UNL1        0.0000
     20 C           1.0085   15.7552    5.6264 C.ar    1  UNL1        0.0000
     21 C           1.0931   17.2353    5.4264 C.ar    1  UNL1        0.0000
     22 C          -0.1707   17.6795    5.1846 C.ar    1  UNL1        0.0000
     23 C          -0.4015   18.7767    4.2215 C.ar    1  UNL1        0.0000
     24 C          -1.4428   18.7126    3.3473 C.ar    1  UNL1        0.0000
     25 C          -2.3496   17.5455    3.3553 C.ar    1  UNL1        0.0000
     26 C          -2.7708   16.9976    2.1825 C.ar    1  UNL1        0.0000
     27 C          -2.3242   17.5663    0.8935 C.ar    1  UNL1        0.0000
     28 C          -1.9643   16.7439   -0.1298 C.ar    1  UNL1        0.0000
     29 C          -2.0178   15.2768    0.0415 C.ar    1  UNL1        0.0000
     30 C          -1.0143   14.4940   -0.4414 C.ar    1  UNL1        0.0000
     31 C           0.1354   15.1060   -1.1402 C.ar    1  UNL1        0.0000
     32 C           1.3992   14.6618   -0.8984 C.ar    1  UNL1        0.0000
     33 C           1.6300   13.5646    0.0646 C.ar    1  UNL1        0.0000
     34 C           2.6713   13.6286    0.9389 C.ar    1  UNL1        0.0000
     35 C           3.5781   14.7958    0.9309 C.ar    1  UNL1        0.0000
     36 C           3.9992   15.3437    2.1037 C.ar    1  UNL1        0.0000
     37 C           3.5526   14.7750    3.3927 C.ar    1  UNL1        0.0000
     38 C           3.1928   15.5974    4.4160 C.ar    1  UNL1        0.0000
     39 C           3.2462   17.0644    4.2447 C.ar    1  UNL1        0.0000
     40 C           2.2428   17.8473    4.7277 C.ar    1  UNL1        0.0000
     41 C           2.0492   18.9655    3.7529 C.ar    1  UNL1        0.0000
     42 C           0.7378   19.4264    3.5019 C.ar    1  UNL1        0.0000
     43 C           0.3451   19.6971    2.2052 C.ar    1  UNL1        0.0000
     44 C          -0.9766   19.3209    2.0625 C.ar    1  UNL1        0.0000
     45 C          -1.4137   18.7523    0.8455 C.ar    1  UNL1        0.0000
     46 C          -0.5148   18.5785   -0.1892 C.ar    1  UNL1        0.0000
     47 C          -0.8213   17.3984   -0.8391 C.ar    1  UNL1        0.0000
     48 C           0.2200   16.5861   -1.3403 C.ar    1  UNL1        0.0000
     49 C           1.5339   16.9803   -1.1751 C.ar    1  UNL1        0.0000
     50 C           2.3007   15.8548   -0.9421 C.ar    1  UNL1        0.0000
     51 C           3.3813   15.9213   -0.0347 C.ar    1  UNL1        0.0000
     52 C           3.6601   17.1111    0.6098 C.ar    1  UNL1        0.0000
     53 C           4.0747   16.8233    1.8960 C.ar    1  UNL1        0.0000
     54 C           3.7012   17.6766    2.9578 C.ar    1  UNL1        0.0000
     55 C           2.9253   18.7902    2.6990 C.ar    1  UNL1        0.0000
     56 C           2.5230   19.0921    1.3738 C.ar    1  UNL1        0.0000
     57 C           1.2565   19.5373    1.1314 C.ar    1  UNL1        0.0000
     58 C           0.8344   18.9883   -0.0440 C.ar    1  UNL1        0.0000
     59 C           1.8400   18.2037   -0.5280 C.ar    1  UNL1        0.0000
     60 C           2.8837   18.2679    0.3482 C.ar    1  UNL1        0.0000
@<TRIPOS>BOND
     1     1     2   ar
     2     1     5   ar
     3     1     9   ar
     4     2     3   ar
     5     2    12   ar
     6     3     4   ar
     7     3    15   ar
     8     4     5   ar
     9     4    18   ar
    10     5     6   ar
    11     6     7   ar
    12     6    20   ar
    13     7     8   ar
    14     7    22   ar
    15     8     9   ar
    16     8    25   ar
    17     9    10   ar
    18    10    11   ar
    19    10    26   ar
    20    11    12   ar
    21    11    29   ar
    22    12    13   ar
    23    13    14   ar
    24    13    30   ar
    25    14    15   ar
    26    14    33   ar
    27    15    16   ar
    28    16    17   ar
    29    16    34   ar
    30    17    18   ar
    31    17    37   ar
    32    18    19   ar
    33    19    20   ar
    34    19    38   ar
    35    20    21   ar
    36    21    22   ar
    37    21    40   ar
    38    22    23   ar
    39    23    24   ar
    40    23    42   ar
    41    24    25   ar
    42    24    44   ar
    43    25    26   ar
    44    26    27   ar
    45    27    28   ar
    46    27    45   ar
    47    28    29   ar
    48    28    47   ar
    49    29    30   ar
    50    30    31   ar
    51    31    32   ar
    52    31    48   ar
    53    32    33   ar
    54    32    50   ar
    55    33    34   ar
    56    34    35   ar
    57    35    36   ar
    58    35    51   ar
    59    36    37   ar
    60    36    53   ar
    61    37    38   ar
    62    38    39   ar
    63    39    40   ar
    64    39    54   ar
    65    40    41   ar
    66    41    42   ar
    67    41    55   ar
    68    42    43   ar
    69    43    44   ar
    70    43    57   ar
    71    44    45   ar
    72    45    46   ar
    73    46    47   ar
    74    46    58   ar
    75    47    48   ar
    76    48    49   ar
    77    49    50   ar
    78    49    59   ar
    79    50    51   ar
    80    51    52   ar
    81    52    53   ar
    82    52    60   ar
    83    53    54   ar
    84    54    55   ar
    85    55    56   ar
    86    56    57   ar
    87    56    60   ar
    88    57    58   ar
    89    58    59   ar
    90    59    60   ar
