@<TRIPOS>MOLECULE
*****
 60 90 0 0 0
SMALL
GASTEIGER

@<TRIPOS>ATOM
      1 C           0.0201   12.8230    3.2228 C.ar    1  UNL1        0.0000
      2 C           0.4339   13.3678    4.4031 C.ar    1  UNL1        0.0000
      3 C          -0.5792   14.1423    4.8881 C.ar    1  UNL1        0.0000
      4 C          -1.6190   14.0761    4.0075 C.ar    1  UNL1        0.0000
      5 C          -1.2487   13.2606    2.9783 C.ar    1  UNL1        0.0000
      6 C          -1.6480   13.5678    1.6535 C.ar    1  UNL1        0.0000
      7 C          -0.7667   13.4053    0.6018 C.ar    1  UNL1        0.0000
      8 C           0.5469   12.9521    0.8550 C.ar    1  UNL1        0.0000
      9 C           0.9367   12.6762    2.1515 C.ar    1  UNL1        0.0000
     10 C           2.2552   13.0609    2.3015 C.ar    1  UNL1        0.0000
     11 C           2.6836   13.6250    3.5236 C.ar    1  UNL1        0.0000
     12 C           1.7796   13.7862    4.5560 C.ar    1  UNL1        0.0000
     13 C           2.0751   14.9644    5.2143 C.ar    1  UNL1        0.0000
     14 C           1.0263   15.7663    5.7163 C.ar    1  UNL1        0.0000
     15 C          -0.2842   15.3638    5.5439 C.ar    1  UNL1        0.0000
     16 C          -1.0580   16.4853    5.3147 C.ar    1  UNL1        0.0000
     17 C          -2.1347   16.4166    4.4030 C.ar    1  UNL1        0.0000
     18 C          -2.4025   15.2289    3.7500 C.ar    1  UNL1        0.0000
     19 C          -2.8143   15.5216    2.4641 C.ar    1  UNL1        0.0000
     20 C          -2.4309   14.6775    1.3984 C.ar    1  UNL1        0.0000
     21 C          -1.9753   15.3007    0.1171 C.ar    1  UNL1        0.0000
     22 C          -0.9645   14.5280   -0.3668 C.ar    1  UNL1        0.0000
     23 C           0.1834   15.1524   -1.0574 C.ar    1  UNL1        0.0000
     24 C           1.4493   14.7157   -0.8134 C.ar    1  UNL1        0.0000
     25 C           1.6843   13.6141    0.1437 C.ar    1  UNL1        0.0000
     26 C           2.7219   13.6803    1.0223 C.ar    1  UNL1        0.0000
     27 C           3.6203   14.8539    1.0250 C.ar    1  UNL1        0.0000
     28 C           4.0331   15.3975    2.2026 C.ar    1  UNL1        0.0000
     29 C           3.5857   14.8178    3.4864 C.ar    1  UNL1        0.0000
     30 C           3.2161   15.6313    4.5133 C.ar    1  UNL1        0.0000
     31 C           3.2599   17.0998    4.3512 C.ar    1  UNL1        0.0000
     32 C           2.2491   17.8726    4.8352 C.ar    1  UNL1        0.0000
     33 C           1.1011   17.2482    5.5257 C.ar    1  UNL1        0.0000
     34 C          -0.1648   17.6849    5.2818 C.ar    1  UNL1        0.0000
     35 C          -0.3998   18.7863    4.3247 C.ar    1  UNL1        0.0000
     36 C          -1.4374   18.7202    3.4460 C.ar    1  UNL1        0.0000
     37 C          -2.3357   17.5466    3.4434 C.ar    1  UNL1        0.0000
     38 C          -2.7486   17.0029    2.2657 C.ar    1  UNL1        0.0000
     39 C          -2.3012   17.5826    0.9819 C.ar    1  UNL1        0.0000
     40 C          -1.9317   16.7691   -0.0451 C.ar    1  UNL1        0.0000
     41 C          -0.7906   17.4361   -0.7460 C.ar    1  UNL1        0.0000
     42 C           0.2583   16.6343   -1.2480 C.ar    1  UNL1        0.0000
     43 C           1.5687   17.0367   -1.0756 C.ar    1  UNL1        0.0000
     44 C           2.3425   15.9153   -0.8463 C.ar    1  UNL1        0.0000
     45 C           3.4192   15.9839    0.0654 C.ar    1  UNL1        0.0000
     46 C           3.6870   17.1717    0.7184 C.ar    1  UNL1        0.0000
     47 C           4.0989   16.8789    2.0043 C.ar    1  UNL1        0.0000
     48 C           3.7154   17.7231    3.0699 C.ar    1  UNL1        0.0000
     49 C           2.9325   18.8326    2.8149 C.ar    1  UNL1        0.0000
     50 C           2.0512   18.9953    3.8665 C.ar    1  UNL1        0.0000
     51 C           0.7375   19.4484    3.6133 C.ar    1  UNL1        0.0000
     52 C           0.3479   19.7243    2.3168 C.ar    1  UNL1        0.0000
     53 C          -0.9706   19.3396    2.1667 C.ar    1  UNL1        0.0000
     54 C          -1.3991   18.7754    0.9447 C.ar    1  UNL1        0.0000
     55 C          -0.4950   18.6144   -0.0877 C.ar    1  UNL1        0.0000
     56 C           0.8506   19.0326    0.0652 C.ar    1  UNL1        0.0000
     57 C           1.8637   18.2582   -0.4198 C.ar    1  UNL1        0.0000
     58 C           2.9036   18.3245    0.4608 C.ar    1  UNL1        0.0000
     59 C           2.5332   19.1398    1.4900 C.ar    1  UNL1        0.0000
     60 C           1.2644   19.5775    1.2455 C.ar    1  UNL1        0.0000
@<TRIPOS>BOND
     1     1     2   ar
     2     1     5   ar
     3     1     9   ar
     4     2     3   ar
     5     2    12   ar
     6     3     4   ar
     7     3    15   ar
     8     4     5   ar
     9     4    18   ar
    10     5     6   ar
    11     6     7   ar
    12     6    20   ar
    13     7     8   ar
    14     7    22   ar
    15     8     9   ar
    16     8    25   ar
    17     9    10   ar
    18    10    11   ar
    19    10    26   ar
    20    11    12   ar
    21    11    29   ar
    22    12    13   ar
    23    13    14   ar
    24    13    30   ar
    25    14    15   ar
    26    14    33   ar
    27    15    16   ar
    28    16    17   ar
    29    16    34   ar
    30    17    18   ar
    31    17    37   ar
    32    18    19   ar
    33    19    20   ar
    34    19    38   ar
    35    20    21   ar
    36    21    22   ar
    37    21    40   ar
    38    22    23   ar
    39    23    24   ar
    40    23    42   ar
    41    24    25   ar
    42    24    44   ar
    43    25    26   ar
    44    26    27   ar
    45    27    28   ar
    46    27    45   ar
    47    28    29   ar
    48    28    47   ar
    49    29    30   ar
    50    30    31   ar
    51    31    32   ar
    52    31    48   ar
    53    32    33   ar
    54    32    50   ar
    55    33    34   ar
    56    34    35   ar
    57    35    36   ar
    58    35    51   ar
    59    36    37   ar
    60    36    53   ar
    61    37    38   ar
    62    38    39   ar
    63    39    40   ar
    64    39    54   ar
    65    40    41   ar
    66    41    42   ar
    67    41    55   ar
    68    42    43   ar
    69    43    44   ar
    70    43    57   ar
    71    44    45   ar
    72    45    46   ar
    73    46    47   ar
    74    46    58   ar
    75    47    48   ar
    76    48    49   ar
    77    49    50   ar
    78    49    59   ar
    79    50    51   ar
    80    51    52   ar
    81    52    53   ar
    82    52    60   ar
    83    53    54   ar
    84    54    55   ar
    85    55    56   ar
    86    56    57   ar
    87    56    60   ar
    88    57    58   ar
    89    58    59   ar
    90    59    60   ar
