
     RDKit          3D

 60 90  0  0  0  0  0  0  0  0999 V2000
    0.9785   12.6857    1.7871 C   0  0  0  0  0  0  0  0  0  0  0  0
    0.5946   13.0196    0.5213 C   0  0  0  0  0  0  0  0  0  0  0  0
    1.6608   13.5970   -0.1043 C   0  0  0  0  0  0  0  0  0  0  0  0
    2.7035   13.6201    0.7751 C   0  0  0  0  0  0  0  0  0  0  0  0
    2.2818   13.0568    1.9440 C   0  0  0  0  0  0  0  0  0  0  0  0
    2.7227   13.5851    3.1833 C   0  0  0  0  0  0  0  0  0  0  0  0
    1.8452   13.7062    4.2437 C   0  0  0  0  0  0  0  0  0  0  0  0
    0.4958   13.3219    4.0812 C   0  0  0  0  0  0  0  0  0  0  0  0
    0.0675   12.8291    2.8636 C   0  0  0  0  0  0  0  0  0  0  0  0
   -1.2172   13.2840    2.6367 C   0  0  0  0  0  0  0  0  0  0  0  0
   -1.6147   13.6297    1.3261 C   0  0  0  0  0  0  0  0  0  0  0  0
   -0.7145   13.5091    0.2848 C   0  0  0  0  0  0  0  0  0  0  0  0
   -0.9220   14.5547   -0.5941 C   0  0  0  0  0  0  0  0  0  0  0  0
    0.1818   15.1527   -1.2415 C   0  0  0  0  0  0  0  0  0  0  0  0
    1.4574   14.6854   -0.9892 C   0  0  0  0  0  0  0  0  0  0  0  0
    2.3229   15.7623   -0.9838 C   0  0  0  0  0  0  0  0  0  0  0  0
    3.4027   15.7861   -0.0733 C   0  0  0  0  0  0  0  0  0  0  0  0
    3.5816   14.7324    0.8021 C   0  0  0  0  0  0  0  0  0  0  0  0
    4.0331   15.2378    2.0061 C   0  0  0  0  0  0  0  0  0  0  0  0
    3.5966   14.6548    3.2164 C   0  0  0  0  0  0  0  0  0  0  0  0
    3.2106   15.5538    4.3481 C   0  0  0  0  0  0  0  0  0  0  0  0
    2.1469   14.9775    4.9721 C   0  0  0  0  0  0  0  0  0  0  0  0
    1.0630   15.8184    5.5224 C   0  0  0  0  0  0  0  0  0  0  0  0
   -0.2375   15.4480    5.3658 C   0  0  0  0  0  0  0  0  0  0  0  0
   -0.5742   14.2027    4.6445 C   0  0  0  0  0  0  0  0  0  0  0  0
   -1.6147   14.1797    3.7670 C   0  0  0  0  0  0  0  0  0  0  0  0
   -2.4145   15.3998    3.5300 C   0  0  0  0  0  0  0  0  0  0  0  0
   -2.7975   15.7329    2.2670 C   0  0  0  0  0  0  0  0  0  0  0  0
   -2.4161   14.8767    1.1243 C   0  0  0  0  0  0  0  0  0  0  0  0
   -1.9953   15.4386   -0.0420 C   0  0  0  0  0  0  0  0  0  0  0  0
   -1.9172   16.9087   -0.1732 C   0  0  0  0  0  0  0  0  0  0  0  0
   -0.8534   17.4849   -0.7973 C   0  0  0  0  0  0  0  0  0  0  0  0
    0.2305   16.6441   -1.3476 C   0  0  0  0  0  0  0  0  0  0  0  0
    1.5309   17.0144   -1.1911 C   0  0  0  0  0  0  0  0  0  0  0  0
    1.8677   18.2596   -0.4696 C   0  0  0  0  0  0  0  0  0  0  0  0
    2.9082   18.2826    0.4078 C   0  0  0  0  0  0  0  0  0  0  0  0
    3.7079   17.0625    0.6448 C   0  0  0  0  0  0  0  0  0  0  0  0
    4.0910   16.7295    1.9079 C   0  0  0  0  0  0  0  0  0  0  0  0
    3.7096   17.5857    3.0506 C   0  0  0  0  0  0  0  0  0  0  0  0
    3.2889   17.0238    4.2169 C   0  0  0  0  0  0  0  0  0  0  0  0
    2.2154   17.9076    4.7689 C   0  0  0  0  0  0  0  0  0  0  0  0
    1.1116   17.3098    5.4164 C   0  0  0  0  0  0  0  0  0  0  0  0
   -0.1640   17.7770    5.1641 C   0  0  0  0  0  0  0  0  0  0  0  0
   -1.0295   16.7001    5.1586 C   0  0  0  0  0  0  0  0  0  0  0  0
   -2.1092   16.6762    4.2481 C   0  0  0  0  0  0  0  0  0  0  0  0
   -2.2881   17.7300    3.3727 C   0  0  0  0  0  0  0  0  0  0  0  0
   -2.7398   17.2245    2.1687 C   0  0  0  0  0  0  0  0  0  0  0  0
   -2.3032   17.8077    0.9585 C   0  0  0  0  0  0  0  0  0  0  0  0
   -1.4292   18.8773    0.9916 C   0  0  0  0  0  0  0  0  0  0  0  0
   -0.5518   18.7563   -0.0689 C   0  0  0  0  0  0  0  0  0  0  0  0
    0.7978   19.1404    0.0937 C   0  0  0  0  0  0  0  0  0  0  0  0
    1.2259   19.6334    1.3113 C   0  0  0  0  0  0  0  0  0  0  0  0
    2.5107   19.1784    1.5382 C   0  0  0  0  0  0  0  0  0  0  0  0
    2.9081   18.8327    2.8488 C   0  0  0  0  0  0  0  0  0  0  0  0
    2.0080   18.9533    3.8900 C   0  0  0  0  0  0  0  0  0  0  0  0
    0.6989   19.4428    3.6537 C   0  0  0  0  0  0  0  0  0  0  0  0
   -0.3673   18.8654    4.2791 C   0  0  0  0  0  0  0  0  0  0  0  0
   -1.4100   18.8424    3.3997 C   0  0  0  0  0  0  0  0  0  0  0  0
   -0.9884   19.4055    2.2308 C   0  0  0  0  0  0  0  0  0  0  0  0
    0.3150   19.7766    2.3878 C   0  0  0  0  0  0  0  0  0  0  0  0
  1  2  1  0
  1  5  2  0
  1  9  1  0
  2  3  1  0
  2 12  2  0
  3  4  2  0
  3 15  1  0
  4  5  1  0
  4 18  1  0
  5  6  1  0
  6  7  2  0
  6 20  1  0
  7  8  1  0
  7 22  1  0
  8  9  2  0
  8 25  1  0
  9 10  1  0
 10 11  2  0
 10 26  1  0
 11 12  1  0
 11 29  1  0
 12 13  1  0
 13 14  2  0
 13 30  1  0
 14 15  1  0
 14 33  1  0
 15 16  2  0
 16 17  1  0
 16 34  1  0
 17 18  2  0
 17 37  1  0
 18 19  1  0
 19 20  2  0
 19 38  1  0
 20 21  1  0
 21 22  2  0
 21 40  1  0
 22 23  1  0
 23 24  2  0
 23 42  1  0
 24 25  1  0
 24 44  1  0
 25 26  2  0
 26 27  1  0
 27 28  2  0
 27 45  1  0
 28 29  1  0
 28 47  1  0
 29 30  2  0
 30 31  1  0
 31 32  2  0
 31 48  1  0
 32 33  1  0
 32 50  1  0
 33 34  2  0
 34 35  1  0
 35 36  2  0
 35 51  1  0
 36 37  1  0
 36 53  1  0
 37 38  2  0
 38 39  1  0
 39 40  2  0
 39 54  1  0
 40 41  1  0
 41 42  2  0
 41 55  1  0
 42 43  1  0
 43 44  2  0
 43 57  1  0
 44 45  1  0
 45 46  2  0
 46 47  1  0
 46 58  1  0
 47 48  2  0
 48 49  1  0
 49 50  2  0
 49 59  1  0
 50 51  1  0
 51 52  2  0
 52 53  1  0
 52 60  1  0
 53 54  2  0
 54 55  1  0
 55 56  2  0
 56 57  1  0
 56 60  1  0
 57 58  2  0
 58 59  1  0
 59 60  2  0
M  END
>  <minimizedAffinity>  
-7.48349

$$$$
